15
water pentamer
H    -1.408028734195E+00  1.738158927171E+00 -1.121500866634E-01
O    -2.232251377249E+00  1.288767689284E+00 -4.574561845874E-01
H    -2.209397423746E+00  3.502246131557E-01 -1.122371918522E-01
H     8.014284372837E-01  2.088180135585E+00  3.505126165389E+00
O     7.979308629817E-05  2.577236228903E+00  3.159849174397E+00
H    -8.012755009240E-01  2.088214745721E+00  3.505140611052E+00
H     4.654596599932E-05  2.570022547242E+00  1.445459293878E+00
O     5.984481472356E-05  2.544016943117E+00  4.457650889283E-01
H    -7.314366042401E-05  3.497482487819E+00  1.418336861811E-01
H     2.209204407855E+00  3.501288133601E-01 -1.122371918522E-01
O     2.232052019973E+00  1.288614455222E+00 -4.576153024818E-01
H     1.407889124651E+00  1.738109035745E+00 -1.122734138119E-01
H -8.015082000109E-01 5.589620535059 -1.122151999481E-01
O    -1.728027283917E-04 5.100503019757999 -4.174416994600E-01
H     8.011625945542E-01 5.5895976808059995 -1.122009698925E-01


