6
water dimer
H     4.654596599932E-05  2.570022547242E+00  1.445459293878E+00
O     5.984481472356E-05  2.544016943117E+00  4.457650889283E-01
H    -7.314366042401E-05  3.497482487819E+00  1.418336861811E-01
H     2.209204407855E+00  3.501288133601E-01 -1.122371918522E-01
O     2.232052019973E+00  1.288614455222E+00 -4.576153024818E-01
H     1.407889124651E+00  1.738109035745E+00 -1.122734138119E-01
